data_GRAP

_audit_creation_method RASPA-1.0
_audit_creation_date 2021-12-28
_audit_author_name 'Luis Salas'

_cell_length_a    29.6986
_cell_length_b    27.5835
_cell_length_c    30
_cell_angle_alpha 90
_cell_angle_beta  90
_cell_angle_gamma 90
_cell_volume      24575.7

_symmetry_cell_setting          triclinic
_symmetry_space_group_name_Hall 'P 1'
_symmetry_space_group_name_H-M  'P 1'
_symmetry_Int_Tables_number     1

_symmetry_equiv_pos_as_xyz 'x,y,z'

loop_
_atom_site_label
_atom_site_type_symbol
_atom_site_fract_x
_atom_site_fract_y
_atom_site_fract_z
_atom_site_charge
C        C      0.041400000000     0.000000000000     0.000000000000     0          
C        C      0.082800000000     0.025700000000     0.000000000000     0          
C        C      0.082800000000     0.077200000000     0.000000000000     0          
C        C      0.124200000000     0.103000000000     0.000000000000     0          
C        C      0.124200000000     0.154400000000     0.000000000000     0          
C        C      0.165600000000     0.180200000000     0.000000000000     0          
C        C      0.165600000000     0.231700000000     0.000000000000     0          
C        C      0.207000000000     0.257400000000     0.000000000000     0          
C        C      0.207000000000     0.308900000000     0.000000000000     0          
C        C      0.248400000000     0.334600000000     0.000000000000     0          
C        C      0.248400000000     0.386100000000     0.000000000000     0          
C        C      0.289900000000     0.411800000000     0.000000000000     0          
C        C      0.289900000000     0.463300000000     0.000000000000     0          
C        C      0.331300000000     0.489100000000     0.000000000000     0          
C        C      0.331300000000     0.540500000000     0.000000000000     0          
C        C      0.372700000000     0.566300000000     0.000000000000     0          
C        C      0.372700000000     0.617800000000     0.000000000000     0          
C        C      0.414100000000     0.643500000000     0.000000000000     0          
C        C      0.414100000000     0.695000000000     0.000000000000     0          
C        C      0.455500000000     0.720700000000     0.000000000000     0          
C        C      0.455500000000     0.772200000000     0.000000000000     0          
C        C      0.496900000000     0.797900000000     0.000000000000     0          
C        C      0.496900000000     0.849400000000     0.000000000000     0          
C        C      0.538300000000     0.875200000000     0.000000000000     0          
C        C      0.538300000000     0.926600000000     0.000000000000     0          
C        C      0.579700000000     0.952400000000     0.000000000000     0          
C        C      0.124200000000     0.000000000000     0.000000000000     0          
C        C      0.165600000000     0.025700000000     0.000000000000     0          
C        C      0.165600000000     0.077200000000     0.000000000000     0          
C        C      0.207000000000     0.103000000000     0.000000000000     0          
C        C      0.207000000000     0.154400000000     0.000000000000     0          
C        C      0.248400000000     0.180200000000     0.000000000000     0          
C        C      0.248400000000     0.231700000000     0.000000000000     0          
C        C      0.289900000000     0.257400000000     0.000000000000     0          
C        C      0.289900000000     0.308900000000     0.000000000000     0          
C        C      0.331300000000     0.334600000000     0.000000000000     0          
C        C      0.331300000000     0.386100000000     0.000000000000     0          
C        C      0.372700000000     0.411800000000     0.000000000000     0          
C        C      0.372700000000     0.463300000000     0.000000000000     0          
C        C      0.414100000000     0.489100000000     0.000000000000     0          
C        C      0.414100000000     0.540500000000     0.000000000000     0          
C        C      0.455500000000     0.566300000000     0.000000000000     0          
C        C      0.455500000000     0.617800000000     0.000000000000     0          
C        C      0.496900000000     0.643500000000     0.000000000000     0          
C        C      0.496900000000     0.695000000000     0.000000000000     0          
C        C      0.538300000000     0.720700000000     0.000000000000     0          
C        C      0.538300000000     0.772200000000     0.000000000000     0          
C        C      0.579700000000     0.797900000000     0.000000000000     0          
C        C      0.579700000000     0.849400000000     0.000000000000     0          
C        C      0.621100000000     0.875200000000     0.000000000000     0          
C        C      0.621100000000     0.926600000000     0.000000000000     0          
C        C      0.662500000000     0.952400000000     0.000000000000     0          
C        C      0.207000000000     0.000000000000     0.000000000000     0          
C        C      0.248400000000     0.025700000000     0.000000000000     0          
C        C      0.248400000000     0.077200000000     0.000000000000     0          
C        C      0.289900000000     0.103000000000     0.000000000000     0          
C        C      0.289900000000     0.154400000000     0.000000000000     0          
C        C      0.331300000000     0.180200000000     0.000000000000     0          
C        C      0.331300000000     0.231700000000     0.000000000000     0          
C        C      0.372700000000     0.257400000000     0.000000000000     0          
C        C      0.372700000000     0.308900000000     0.000000000000     0          
C        C      0.414100000000     0.334600000000     0.000000000000     0          
C        C      0.414100000000     0.386100000000     0.000000000000     0          
C        C      0.455500000000     0.411800000000     0.000000000000     0          
C        C      0.455500000000     0.463300000000     0.000000000000     0          
C        C      0.496900000000     0.489100000000     0.000000000000     0          
C        C      0.496900000000     0.540500000000     0.000000000000     0          
C        C      0.538300000000     0.566300000000     0.000000000000     0          
C        C      0.538300000000     0.617800000000     0.000000000000     0          
C        C      0.579700000000     0.643500000000     0.000000000000     0          
C        C      0.579700000000     0.695000000000     0.000000000000     0          
C        C      0.621100000000     0.720700000000     0.000000000000     0          
C        C      0.621100000000     0.772200000000     0.000000000000     0          
C        C      0.662500000000     0.797900000000     0.000000000000     0          
C        C      0.662500000000     0.849400000000     0.000000000000     0          
C        C      0.703900000000     0.875200000000     0.000000000000     0          
C        C      0.703900000000     0.926600000000     0.000000000000     0          
C        C      0.745300000000     0.952400000000     0.000000000000     0          
C        C      0.289900000000     0.000000000000     0.000000000000     0          
C        C      0.331300000000     0.025700000000     0.000000000000     0          
C        C      0.331300000000     0.077200000000     0.000000000000     0          
C        C      0.372700000000     0.103000000000     0.000000000000     0          
C        C      0.372700000000     0.154400000000     0.000000000000     0          
C        C      0.414100000000     0.180200000000     0.000000000000     0          
C        C      0.414100000000     0.231700000000     0.000000000000     0          
C        C      0.455500000000     0.257400000000     0.000000000000     0          
C        C      0.455500000000     0.308900000000     0.000000000000     0          
C        C      0.496900000000     0.334600000000     0.000000000000     0          
C        C      0.496900000000     0.386100000000     0.000000000000     0          
C        C      0.538300000000     0.411800000000     0.000000000000     0          
C        C      0.538300000000     0.463300000000     0.000000000000     0          
C        C      0.579700000000     0.489100000000     0.000000000000     0          
C        C      0.579700000000     0.540500000000     0.000000000000     0          
C        C      0.621100000000     0.566300000000     0.000000000000     0          
C        C      0.621100000000     0.617800000000     0.000000000000     0          
C        C      0.662500000000     0.643500000000     0.000000000000     0          
C        C      0.662500000000     0.695000000000     0.000000000000     0          
C        C      0.703900000000     0.720700000000     0.000000000000     0          
C        C      0.703900000000     0.772200000000     0.000000000000     0          
C        C      0.745300000000     0.797900000000     0.000000000000     0          
C        C      0.745300000000     0.849400000000     0.000000000000     0          
C        C      0.786700000000     0.875200000000     0.000000000000     0          
C        C      0.786700000000     0.926600000000     0.000000000000     0          
C        C      0.828200000000     0.952400000000     0.000000000000     0          
C        C      0.372700000000     0.000000000000     0.000000000000     0          
C        C      0.414100000000     0.025700000000     0.000000000000     0          
C        C      0.414100000000     0.077200000000     0.000000000000     0          
C        C      0.455500000000     0.103000000000     0.000000000000     0          
C        C      0.455500000000     0.154400000000     0.000000000000     0          
C        C      0.496900000000     0.180200000000     0.000000000000     0          
C        C      0.496900000000     0.231700000000     0.000000000000     0          
C        C      0.538300000000     0.257400000000     0.000000000000     0          
C        C      0.538300000000     0.308900000000     0.000000000000     0          
C        C      0.579700000000     0.334600000000     0.000000000000     0          
C        C      0.579700000000     0.386100000000     0.000000000000     0          
C        C      0.621100000000     0.411800000000     0.000000000000     0          
C        C      0.621100000000     0.463300000000     0.000000000000     0          
C        C      0.662500000000     0.489100000000     0.000000000000     0          
C        C      0.662500000000     0.540500000000     0.000000000000     0          
C        C      0.703900000000     0.566300000000     0.000000000000     0          
C        C      0.703900000000     0.617800000000     0.000000000000     0          
C        C      0.745300000000     0.643500000000     0.000000000000     0          
C        C      0.745300000000     0.695000000000     0.000000000000     0          
C        C      0.786700000000     0.720700000000     0.000000000000     0          
C        C      0.786700000000     0.772200000000     0.000000000000     0          
C        C      0.828200000000     0.797900000000     0.000000000000     0          
C        C      0.828200000000     0.849400000000     0.000000000000     0          
C        C      0.869600000000     0.875200000000     0.000000000000     0          
C        C      0.869600000000     0.926600000000     0.000000000000     0          
C        C      0.911000000000     0.952400000000     0.000000000000     0          
C        C      0.455500000000     0.000000000000     0.000000000000     0          
C        C      0.496900000000     0.025700000000     0.000000000000     0          
C        C      0.496900000000     0.077200000000     0.000000000000     0          
C        C      0.538300000000     0.103000000000     0.000000000000     0          
C        C      0.538300000000     0.154400000000     0.000000000000     0          
C        C      0.579700000000     0.180200000000     0.000000000000     0          
C        C      0.579700000000     0.231700000000     0.000000000000     0          
C        C      0.621100000000     0.257400000000     0.000000000000     0          
C        C      0.621100000000     0.308900000000     0.000000000000     0          
C        C      0.662500000000     0.334600000000     0.000000000000     0          
C        C      0.662500000000     0.386100000000     0.000000000000     0          
C        C      0.703900000000     0.411800000000     0.000000000000     0          
C        C      0.703900000000     0.463300000000     0.000000000000     0          
C        C      0.745300000000     0.489100000000     0.000000000000     0          
C        C      0.745300000000     0.540500000000     0.000000000000     0          
C        C      0.786700000000     0.566300000000     0.000000000000     0          
C        C      0.786700000000     0.617800000000     0.000000000000     0          
C        C      0.828200000000     0.643500000000     0.000000000000     0          
C        C      0.828200000000     0.695000000000     0.000000000000     0          
C        C      0.869600000000     0.720700000000     0.000000000000     0          
C        C      0.869600000000     0.772200000000     0.000000000000     0          
C        C      0.911000000000     0.797900000000     0.000000000000     0          
C        C      0.911000000000     0.849400000000     0.000000000000     0          
C        C      0.952400000000     0.875200000000     0.000000000000     0          
C        C      0.538300000000     0.000000000000     0.000000000000     0          
C        C      0.579700000000     0.025700000000     0.000000000000     0          
C        C      0.579700000000     0.077200000000     0.000000000000     0          
C        C      0.621100000000     0.103000000000     0.000000000000     0          
C        C      0.621100000000     0.154400000000     0.000000000000     0          
C        C      0.662500000000     0.180200000000     0.000000000000     0          
C        C      0.662500000000     0.231700000000     0.000000000000     0          
C        C      0.703900000000     0.257400000000     0.000000000000     0          
C        C      0.703900000000     0.308900000000     0.000000000000     0          
C        C      0.745300000000     0.334600000000     0.000000000000     0          
C        C      0.745300000000     0.386100000000     0.000000000000     0          
C        C      0.786700000000     0.411800000000     0.000000000000     0          
C        C      0.786700000000     0.463300000000     0.000000000000     0          
C        C      0.828200000000     0.489100000000     0.000000000000     0          
C        C      0.828200000000     0.540500000000     0.000000000000     0          
C        C      0.869600000000     0.566300000000     0.000000000000     0          
C        C      0.869600000000     0.617800000000     0.000000000000     0          
C        C      0.911000000000     0.643500000000     0.000000000000     0          
C        C      0.911000000000     0.695000000000     0.000000000000     0          
C        C      0.952400000000     0.720700000000     0.000000000000     0          
C        C      0.621100000000     0.000000000000     0.000000000000     0          
C        C      0.662500000000     0.025700000000     0.000000000000     0          
C        C      0.662500000000     0.077200000000     0.000000000000     0          
C        C      0.703900000000     0.103000000000     0.000000000000     0          
C        C      0.703900000000     0.154400000000     0.000000000000     0          
C        C      0.745300000000     0.180200000000     0.000000000000     0          
C        C      0.745300000000     0.231700000000     0.000000000000     0          
C        C      0.786700000000     0.257400000000     0.000000000000     0          
C        C      0.786700000000     0.308900000000     0.000000000000     0          
C        C      0.828200000000     0.334600000000     0.000000000000     0          
C        C      0.828200000000     0.386100000000     0.000000000000     0          
C        C      0.869600000000     0.411800000000     0.000000000000     0          
C        C      0.869600000000     0.463300000000     0.000000000000     0          
C        C      0.911000000000     0.489100000000     0.000000000000     0          
C        C      0.911000000000     0.540500000000     0.000000000000     0          
C        C      0.952400000000     0.566300000000     0.000000000000     0          
C        C      0.703900000000     0.000000000000     0.000000000000     0          
C        C      0.745300000000     0.025700000000     0.000000000000     0          
C        C      0.745300000000     0.077200000000     0.000000000000     0          
C        C      0.786700000000     0.103000000000     0.000000000000     0          
C        C      0.786700000000     0.154400000000     0.000000000000     0          
C        C      0.828200000000     0.180200000000     0.000000000000     0          
C        C      0.828200000000     0.231700000000     0.000000000000     0          
C        C      0.869600000000     0.257400000000     0.000000000000     0          
C        C      0.869600000000     0.308900000000     0.000000000000     0          
C        C      0.911000000000     0.334600000000     0.000000000000     0          
C        C      0.911000000000     0.386100000000     0.000000000000     0          
C        C      0.952400000000     0.411800000000     0.000000000000     0          
C        C      0.786700000000     0.000000000000     0.000000000000     0          
C        C      0.828200000000     0.025700000000     0.000000000000     0          
C        C      0.828200000000     0.077200000000     0.000000000000     0          
C        C      0.869600000000     0.103000000000     0.000000000000     0          
C        C      0.869600000000     0.154400000000     0.000000000000     0          
C        C      0.911000000000     0.180200000000     0.000000000000     0          
C        C      0.911000000000     0.231700000000     0.000000000000     0          
C        C      0.952400000000     0.257400000000     0.000000000000     0          
C        C      0.869600000000     0.000000000000     0.000000000000     0          
C        C      0.911000000000     0.025700000000     0.000000000000     0          
C        C      0.911000000000     0.077200000000     0.000000000000     0          
C        C      0.952400000000     0.103000000000     0.000000000000     0          
C        C      0.041400000000     0.154400000000     0.000000000000     0          
C        C      0.082800000000     0.180200000000     0.000000000000     0          
C        C      0.082800000000     0.231700000000     0.000000000000     0          
C        C      0.124200000000     0.257400000000     0.000000000000     0          
C        C      0.124200000000     0.308900000000     0.000000000000     0          
C        C      0.165600000000     0.334600000000     0.000000000000     0          
C        C      0.165600000000     0.386100000000     0.000000000000     0          
C        C      0.207000000000     0.411800000000     0.000000000000     0          
C        C      0.207000000000     0.463300000000     0.000000000000     0          
C        C      0.248400000000     0.489100000000     0.000000000000     0          
C        C      0.248400000000     0.540500000000     0.000000000000     0          
C        C      0.289900000000     0.566300000000     0.000000000000     0          
C        C      0.289900000000     0.617800000000     0.000000000000     0          
C        C      0.331300000000     0.643500000000     0.000000000000     0          
C        C      0.331300000000     0.695000000000     0.000000000000     0          
C        C      0.372700000000     0.720700000000     0.000000000000     0          
C        C      0.372700000000     0.772200000000     0.000000000000     0          
C        C      0.414100000000     0.797900000000     0.000000000000     0          
C        C      0.414100000000     0.849400000000     0.000000000000     0          
C        C      0.455500000000     0.875200000000     0.000000000000     0          
C        C      0.455500000000     0.926600000000     0.000000000000     0          
C        C      0.496900000000     0.952400000000     0.000000000000     0          
C        C      0.041400000000     0.308900000000     0.000000000000     0          
C        C      0.082800000000     0.334600000000     0.000000000000     0          
C        C      0.082800000000     0.386100000000     0.000000000000     0          
C        C      0.124200000000     0.411800000000     0.000000000000     0          
C        C      0.124200000000     0.463300000000     0.000000000000     0          
C        C      0.165600000000     0.489100000000     0.000000000000     0          
C        C      0.165600000000     0.540500000000     0.000000000000     0          
C        C      0.207000000000     0.566300000000     0.000000000000     0          
C        C      0.207000000000     0.617800000000     0.000000000000     0          
C        C      0.248400000000     0.643500000000     0.000000000000     0          
C        C      0.248400000000     0.695000000000     0.000000000000     0          
C        C      0.289900000000     0.720700000000     0.000000000000     0          
C        C      0.289900000000     0.772200000000     0.000000000000     0          
C        C      0.331300000000     0.797900000000     0.000000000000     0          
C        C      0.331300000000     0.849400000000     0.000000000000     0          
C        C      0.372700000000     0.875200000000     0.000000000000     0          
C        C      0.372700000000     0.926600000000     0.000000000000     0          
C        C      0.414100000000     0.952400000000     0.000000000000     0          
C        C      0.041400000000     0.463300000000     0.000000000000     0          
C        C      0.082800000000     0.489100000000     0.000000000000     0          
C        C      0.082800000000     0.540500000000     0.000000000000     0          
C        C      0.124200000000     0.566300000000     0.000000000000     0          
C        C      0.124200000000     0.617800000000     0.000000000000     0          
C        C      0.165600000000     0.643500000000     0.000000000000     0          
C        C      0.165600000000     0.695000000000     0.000000000000     0          
C        C      0.207000000000     0.720700000000     0.000000000000     0          
C        C      0.207000000000     0.772200000000     0.000000000000     0          
C        C      0.248400000000     0.797900000000     0.000000000000     0          
C        C      0.248400000000     0.849400000000     0.000000000000     0          
C        C      0.289900000000     0.875200000000     0.000000000000     0          
C        C      0.289900000000     0.926600000000     0.000000000000     0          
C        C      0.331300000000     0.952400000000     0.000000000000     0          
C        C      0.000000000000     0.540500000000     0.000000000000     0          
C        C      0.041400000000     0.566300000000     0.000000000000     0          
C        C      0.041400000000     0.617800000000     0.000000000000     0          
C        C      0.082800000000     0.643500000000     0.000000000000     0          
C        C      0.082800000000     0.695000000000     0.000000000000     0          
C        C      0.124200000000     0.720700000000     0.000000000000     0          
C        C      0.124200000000     0.772200000000     0.000000000000     0          
C        C      0.165600000000     0.797900000000     0.000000000000     0          
C        C      0.165600000000     0.849400000000     0.000000000000     0          
C        C      0.207000000000     0.875200000000     0.000000000000     0          
C        C      0.207000000000     0.926600000000     0.000000000000     0          
C        C      0.248400000000     0.952400000000     0.000000000000     0          
C        C      0.000000000000     0.695000000000     0.000000000000     0          
C        C      0.041400000000     0.720700000000     0.000000000000     0          
C        C      0.041400000000     0.772200000000     0.000000000000     0          
C        C      0.082800000000     0.797900000000     0.000000000000     0          
C        C      0.082800000000     0.849400000000     0.000000000000     0          
C        C      0.124200000000     0.875200000000     0.000000000000     0          
C        C      0.124200000000     0.926600000000     0.000000000000     0          
C        C      0.165600000000     0.952400000000     0.000000000000     0          
C        C      0.000000000000     0.849400000000     0.000000000000     0          
C        C      0.041400000000     0.875200000000     0.000000000000     0          
C        C      0.041400000000     0.926600000000     0.000000000000     0          
C        C      0.082800000000     0.952400000000     0.000000000000     0          


